<?xml version="1.0" encoding="UTF-8"?>

<!-- generated on 03/03/21 23:10:29 by Eclipse SUMO duarouter Version 1.6.0
<configuration xmlns:xsi="http://www.w3.org/2001/XMLSchema-instance" xsi:noNamespaceSchemaLocation="http://sumo.dlr.de/xsd/duarouterConfiguration.xsd">

    <input>
        <net-file value="150222.net.xml"/>
        <route-files value="15022.tripss.xml"/>
    </input>

    <output>
        <output-file value="15022ext.rou.xml"/>
        <alternatives-output value="15022ext.rou.alt.xml"/>
    </output>

    <report>
        <ignore-errors value="true"/>
    </report>

</configuration>
-->

<routes xmlns:xsi="http://www.w3.org/2001/XMLSchema-instance" xsi:noNamespaceSchemaLocation="http://sumo.dlr.de/xsd/routes_file.xsd">
    <vehicle id="0" depart="0.00">
        <route edges="A1 D2 E2"/>
    </vehicle>
    <vehicle id="X0" depart="0.00">
        <route edges="E1 D1 A2"/>
    </vehicle>
    <vehicle id="1" depart="1.00">
        <route edges="B1 D2 F2"/>
    </vehicle>
    <vehicle id="X1" depart="1.00">
        <route edges="F1 D1 B2"/>
    </vehicle>
    <vehicle id="2" depart="2.00">
        <route edges="B1 D2 F2"/>
    </vehicle>
    <vehicle id="X2" depart="2.00">
        <route edges="F1 D1 B2"/>
    </vehicle>
    <vehicle id="3" depart="3.00">
        <route edges="B1 D2 F2"/>
    </vehicle>
    <vehicle id="X3" depart="3.00">
        <route edges="F1 D1 B2"/>
    </vehicle>
    <vehicle id="4" depart="4.00">
        <route edges="C1 D2 G2"/>
    </vehicle>
    <vehicle id="X4" depart="4.00">
        <route edges="G1 D1 C2"/>
    </vehicle>
    <vehicle id="5" depart="5.00">
        <route edges="B1 D2 E2"/>
    </vehicle>
    <vehicle id="X5" depart="5.00">
        <route edges="E1 D1 B2"/>
    </vehicle>
    <vehicle id="6" depart="6.00">
        <route edges="B1 D2 E2"/>
    </vehicle>
    <vehicle id="X6" depart="6.00">
        <route edges="E1 D1 B2"/>
    </vehicle>
    <vehicle id="7" depart="7.00">
        <route edges="B1 D2 E2"/>
    </vehicle>
    <vehicle id="X7" depart="7.00">
        <route edges="E1 D1 B2"/>
    </vehicle>
    <vehicle id="8" depart="8.00">
        <route edges="B1 D2 G2"/>
    </vehicle>
    <vehicle id="X8" depart="8.00">
        <route edges="G1 D1 B2"/>
    </vehicle>
    <vehicle id="9" depart="9.00">
        <route edges="B1 D2 F2"/>
    </vehicle>
    <vehicle id="X9" depart="9.00">
        <route edges="F1 D1 B2"/>
    </vehicle>
    <vehicle id="10" depart="10.00">
        <route edges="B1 D2 F2"/>
    </vehicle>
    <vehicle id="X10" depart="10.00">
        <route edges="F1 D1 B2"/>
    </vehicle>
    <vehicle id="11" depart="11.00">
        <route edges="B1 D2 E2"/>
    </vehicle>
    <vehicle id="X11" depart="11.00">
        <route edges="E1 D1 B2"/>
    </vehicle>
    <vehicle id="12" depart="12.00">
        <route edges="B1 D2 E2"/>
    </vehicle>
    <vehicle id="X12" depart="12.00">
        <route edges="E1 D1 B2"/>
    </vehicle>
    <vehicle id="13" depart="13.00">
        <route edges="B1 D2 F2"/>
    </vehicle>
    <vehicle id="X13" depart="13.00">
        <route edges="F1 D1 B2"/>
    </vehicle>
    <vehicle id="14" depart="14.00">
        <route edges="B1 D2 F2"/>
    </vehicle>
    <vehicle id="X14" depart="14.00">
        <route edges="F1 D1 B2"/>
    </vehicle>
    <vehicle id="15" depart="15.00">
        <route edges="B1 D2 F2"/>
    </vehicle>
    <vehicle id="X15" depart="15.00">
        <route edges="F1 D1 B2"/>
    </vehicle>
    <vehicle id="16" depart="16.00">
        <route edges="B1 D2 E2"/>
    </vehicle>
    <vehicle id="X16" depart="16.00">
        <route edges="E1 D1 B2"/>
    </vehicle>
    <vehicle id="17" depart="17.00">
        <route edges="B1 C2"/>
    </vehicle>
    <vehicle id="X17" depart="17.00">
        <route edges="C1 B2"/>
    </vehicle>
    <vehicle id="18" depart="18.00">
        <route edges="B1 A2"/>
    </vehicle>
    <vehicle id="X18" depart="18.00">
        <route edges="A1 B2"/>
    </vehicle>
    <vehicle id="19" depart="19.00">
        <route edges="A1 C2"/>
    </vehicle>
    <vehicle id="X19" depart="19.00">
        <route edges="C1 A2"/>
    </vehicle>
    <vehicle id="20" depart="20.00">
        <route edges="C1 A2"/>
    </vehicle>
    <vehicle id="X20" depart="20.00">
        <route edges="A1 C2"/>
    </vehicle>
    <vehicle id="21" depart="21.00">
        <route edges="B1 D2 F2"/>
    </vehicle>
    <vehicle id="X21" depart="21.00">
        <route edges="F1 D1 B2"/>
    </vehicle>
    <vehicle id="22" depart="22.00">
        <route edges="B1 D2 E2"/>
    </vehicle>
    <vehicle id="X22" depart="22.00">
        <route edges="E1 D1 B2"/>
    </vehicle>
    <vehicle id="23" depart="23.00">
        <route edges="B1 D2 G2"/>
    </vehicle>
    <vehicle id="X23" depart="23.00">
        <route edges="G1 D1 B2"/>
    </vehicle>
    <vehicle id="24" depart="24.00">
        <route edges="B1 D2 F2"/>
    </vehicle>
    <vehicle id="X24" depart="24.00">
        <route edges="F1 D1 B2"/>
    </vehicle>
    <vehicle id="25" depart="25.00">
        <route edges="B1 D2 F2"/>
    </vehicle>
    <vehicle id="X25" depart="25.00">
        <route edges="F1 D1 B2"/>
    </vehicle>
    <vehicle id="26" depart="26.00">
        <route edges="B1 D2 E2"/>
    </vehicle>
    <vehicle id="X26" depart="26.00">
        <route edges="E1 D1 B2"/>
    </vehicle>
    <vehicle id="27" depart="27.00">
        <route edges="B1 D2 E2"/>
    </vehicle>
    <vehicle id="X27" depart="27.00">
        <route edges="E1 D1 B2"/>
    </vehicle>
    <vehicle id="28" depart="28.00">
        <route edges="B1 D2 E2"/>
    </vehicle>
    <vehicle id="X28" depart="28.00">
        <route edges="E1 D1 B2"/>
    </vehicle>
    <vehicle id="29" depart="29.00">
        <route edges="B1 D2 F2"/>
    </vehicle>
    <vehicle id="X29" depart="29.00">
        <route edges="F1 D1 B2"/>
    </vehicle>
    <vehicle id="30" depart="30.00">
        <route edges="A1 D2 E2"/>
    </vehicle>
    <vehicle id="X30" depart="30.00">
        <route edges="E1 D1 A2"/>
    </vehicle>
    <vehicle id="31" depart="31.00">
        <route edges="C1 D2 F2"/>
    </vehicle>
    <vehicle id="X31" depart="31.00">
        <route edges="F1 D1 C2"/>
    </vehicle>
    <vehicle id="32" depart="32.00">
        <route edges="B1 D2 F2"/>
    </vehicle>
    <vehicle id="X32" depart="32.00">
        <route edges="F1 D1 B2"/>
    </vehicle>
    <vehicle id="33" depart="33.00">
        <route edges="C1 D2 G2"/>
    </vehicle>
    <vehicle id="X33" depart="33.00">
        <route edges="G1 D1 C2"/>
    </vehicle>
    <vehicle id="34" depart="34.00">
        <route edges="A1 D2 F2"/>
    </vehicle>
    <vehicle id="X34" depart="34.00">
        <route edges="F1 D1 A2"/>
    </vehicle>
    <vehicle id="35" depart="35.00">
        <route edges="B1 D2 F2"/>
    </vehicle>
    <vehicle id="X35" depart="35.00">
        <route edges="F1 D1 B2"/>
    </vehicle>
    <vehicle id="36" depart="36.00">
        <route edges="B1 D2 G2"/>
    </vehicle>
    <vehicle id="X36" depart="36.00">
        <route edges="G1 D1 B2"/>
    </vehicle>
    <vehicle id="37" depart="37.00">
        <route edges="B1 D2 F2"/>
    </vehicle>
    <vehicle id="X37" depart="37.00">
        <route edges="F1 D1 B2"/>
    </vehicle>
    <vehicle id="38" depart="38.00">
        <route edges="B1 D2 F2"/>
    </vehicle>
    <vehicle id="X38" depart="38.00">
        <route edges="F1 D1 B2"/>
    </vehicle>
    <vehicle id="39" depart="39.00">
        <route edges="B1 D2 F2"/>
    </vehicle>
    <vehicle id="X39" depart="39.00">
        <route edges="F1 D1 B2"/>
    </vehicle>
    <vehicle id="40" depart="40.00">
        <route edges="C1 D2 E2"/>
    </vehicle>
    <vehicle id="X40" depart="40.00">
        <route edges="E1 D1 C2"/>
    </vehicle>
    <vehicle id="41" depart="41.00">
        <route edges="C1 D2 F2"/>
    </vehicle>
    <vehicle id="X41" depart="41.00">
        <route edges="F1 D1 C2"/>
    </vehicle>
    <vehicle id="42" depart="42.00">
        <route edges="B1 D2 F2"/>
    </vehicle>
    <vehicle id="X42" depart="42.00">
        <route edges="F1 D1 B2"/>
    </vehicle>
    <vehicle id="43" depart="43.00">
        <route edges="C1 D2 E2"/>
    </vehicle>
    <vehicle id="X43" depart="43.00">
        <route edges="E1 D1 C2"/>
    </vehicle>
    <vehicle id="44" depart="44.00">
        <route edges="B1 D2 F2"/>
    </vehicle>
    <vehicle id="X44" depart="44.00">
        <route edges="F1 D1 B2"/>
    </vehicle>
    <vehicle id="45" depart="45.00">
        <route edges="C1 A2"/>
    </vehicle>
    <vehicle id="X45" depart="45.00">
        <route edges="A1 C2"/>
    </vehicle>
    <vehicle id="46" depart="46.00">
        <route edges="C1 D2 F2"/>
    </vehicle>
    <vehicle id="X46" depart="46.00">
        <route edges="F1 D1 C2"/>
    </vehicle>
    <vehicle id="47" depart="47.00">
        <route edges="B1 D2 E2"/>
    </vehicle>
    <vehicle id="X47" depart="47.00">
        <route edges="E1 D1 B2"/>
    </vehicle>
    <vehicle id="48" depart="48.00">
        <route edges="C1 D2 F2"/>
    </vehicle>
    <vehicle id="X48" depart="48.00">
        <route edges="F1 D1 C2"/>
    </vehicle>
    <vehicle id="49" depart="49.00">
        <route edges="B1 D2 F2"/>
    </vehicle>
    <vehicle id="X49" depart="49.00">
        <route edges="F1 D1 B2"/>
    </vehicle>
    <vehicle id="50" depart="50.00">
        <route edges="C1 D2 F2"/>
    </vehicle>
    <vehicle id="X50" depart="50.00">
        <route edges="F1 D1 C2"/>
    </vehicle>
    <vehicle id="51" depart="51.00">
        <route edges="B1 D2 F2"/>
    </vehicle>
    <vehicle id="X51" depart="51.00">
        <route edges="F1 D1 B2"/>
    </vehicle>
    <vehicle id="52" depart="52.00">
        <route edges="C1 D2 G2"/>
    </vehicle>
    <vehicle id="X52" depart="52.00">
        <route edges="G1 D1 C2"/>
    </vehicle>
    <vehicle id="53" depart="53.00">
        <route edges="B1 D2 F2"/>
    </vehicle>
    <vehicle id="X53" depart="53.00">
        <route edges="F1 D1 B2"/>
    </vehicle>
    <vehicle id="54" depart="54.00">
        <route edges="B1 D2 E2"/>
    </vehicle>
    <vehicle id="X54" depart="54.00">
        <route edges="E1 D1 B2"/>
    </vehicle>
    <vehicle id="55" depart="55.00">
        <route edges="B1 D2 F2"/>
    </vehicle>
    <vehicle id="X55" depart="55.00">
        <route edges="F1 D1 B2"/>
    </vehicle>
    <vehicle id="56" depart="56.00">
        <route edges="A1 D2 E2"/>
    </vehicle>
    <vehicle id="X56" depart="56.00">
        <route edges="E1 D1 A2"/>
    </vehicle>
    <vehicle id="57" depart="57.00">
        <route edges="C1 D2 F2"/>
    </vehicle>
    <vehicle id="X57" depart="57.00">
        <route edges="F1 D1 C2"/>
    </vehicle>
    <vehicle id="58" depart="58.00">
        <route edges="C1 D2 F2"/>
    </vehicle>
    <vehicle id="X58" depart="58.00">
        <route edges="F1 D1 C2"/>
    </vehicle>
    <vehicle id="59" depart="59.00">
        <route edges="B1 D2 E2"/>
    </vehicle>
    <vehicle id="X59" depart="59.00">
        <route edges="E1 D1 B2"/>
    </vehicle>
    <vehicle id="60" depart="60.00">
        <route edges="A1 D2 F2"/>
    </vehicle>
    <vehicle id="X60" depart="60.00">
        <route edges="F1 D1 A2"/>
    </vehicle>
    <vehicle id="61" depart="61.00">
        <route edges="C1 D2 E2"/>
    </vehicle>
    <vehicle id="X61" depart="61.00">
        <route edges="E1 D1 C2"/>
    </vehicle>
    <vehicle id="62" depart="62.00">
        <route edges="B1 D2 F2"/>
    </vehicle>
    <vehicle id="X62" depart="62.00">
        <route edges="F1 D1 B2"/>
    </vehicle>
    <vehicle id="63" depart="63.00">
        <route edges="C1 D2 F2"/>
    </vehicle>
    <vehicle id="X63" depart="63.00">
        <route edges="F1 D1 C2"/>
    </vehicle>
    <vehicle id="64" depart="64.00">
        <route edges="B1 D2 E2"/>
    </vehicle>
    <vehicle id="X64" depart="64.00">
        <route edges="E1 D1 B2"/>
    </vehicle>
    <vehicle id="65" depart="65.00">
        <route edges="C1 D2 E2"/>
    </vehicle>
    <vehicle id="X65" depart="65.00">
        <route edges="E1 D1 C2"/>
    </vehicle>
    <vehicle id="66" depart="66.00">
        <route edges="B1 D2 G2"/>
    </vehicle>
    <vehicle id="X66" depart="66.00">
        <route edges="G1 D1 B2"/>
    </vehicle>
    <vehicle id="67" depart="67.00">
        <route edges="C1 D2 F2"/>
    </vehicle>
    <vehicle id="X67" depart="67.00">
        <route edges="F1 D1 C2"/>
    </vehicle>
    <vehicle id="68" depart="68.00">
        <route edges="B1 D2 E2"/>
    </vehicle>
    <vehicle id="X68" depart="68.00">
        <route edges="E1 D1 B2"/>
    </vehicle>
    <vehicle id="69" depart="69.00">
        <route edges="C1 D2 E2"/>
    </vehicle>
    <vehicle id="X69" depart="69.00">
        <route edges="E1 D1 C2"/>
    </vehicle>
    <vehicle id="70" depart="70.00">
        <route edges="B1 D2 E2"/>
    </vehicle>
    <vehicle id="X70" depart="70.00">
        <route edges="E1 D1 B2"/>
    </vehicle>
    <vehicle id="71" depart="71.00">
        <route edges="C1 D2 G2"/>
    </vehicle>
    <vehicle id="X71" depart="71.00">
        <route edges="G1 D1 C2"/>
    </vehicle>
    <vehicle id="72" depart="72.00">
        <route edges="C1 D2 E2"/>
    </vehicle>
    <vehicle id="X72" depart="72.00">
        <route edges="E1 D1 C2"/>
    </vehicle>
    <vehicle id="73" depart="73.00">
        <route edges="C1 D2 E2"/>
    </vehicle>
    <vehicle id="X73" depart="73.00">
        <route edges="E1 D1 C2"/>
    </vehicle>
    <vehicle id="74" depart="74.00">
        <route edges="A1 D2 E2"/>
    </vehicle>
    <vehicle id="X74" depart="74.00">
        <route edges="E1 D1 A2"/>
    </vehicle>
    <vehicle id="75" depart="75.00">
        <route edges="C1 D2 E2"/>
    </vehicle>
    <vehicle id="X75" depart="75.00">
        <route edges="E1 D1 C2"/>
    </vehicle>
    <vehicle id="76" depart="76.00">
        <route edges="C1 D2 E2"/>
    </vehicle>
    <vehicle id="X76" depart="76.00">
        <route edges="E1 D1 C2"/>
    </vehicle>
    <vehicle id="77" depart="77.00">
        <route edges="B1 D2 F2"/>
    </vehicle>
    <vehicle id="X77" depart="77.00">
        <route edges="F1 D1 B2"/>
    </vehicle>
    <vehicle id="78" depart="78.00">
        <route edges="C1 D2 E2"/>
    </vehicle>
    <vehicle id="X78" depart="78.00">
        <route edges="E1 D1 C2"/>
    </vehicle>
    <vehicle id="79" depart="79.00">
        <route edges="B1 D2 G2"/>
    </vehicle>
    <vehicle id="X79" depart="79.00">
        <route edges="G1 D1 B2"/>
    </vehicle>
    <vehicle id="80" depart="80.00">
        <route edges="C1 D2 E2"/>
    </vehicle>
    <vehicle id="X80" depart="80.00">
        <route edges="E1 D1 C2"/>
    </vehicle>
    <vehicle id="81" depart="81.00">
        <route edges="A1 D2 G2"/>
    </vehicle>
    <vehicle id="X81" depart="81.00">
        <route edges="G1 D1 A2"/>
    </vehicle>
    <vehicle id="82" depart="82.00">
        <route edges="C1 D2 F2"/>
    </vehicle>
    <vehicle id="X82" depart="82.00">
        <route edges="F1 D1 C2"/>
    </vehicle>
    <vehicle id="83" depart="83.00">
        <route edges="C1 D2 E2"/>
    </vehicle>
    <vehicle id="X83" depart="83.00">
        <route edges="E1 D1 C2"/>
    </vehicle>
    <vehicle id="84" depart="84.00">
        <route edges="C1 D2 F2"/>
    </vehicle>
    <vehicle id="X84" depart="84.00">
        <route edges="F1 D1 C2"/>
    </vehicle>
    <vehicle id="85" depart="85.00">
        <route edges="A1 D2 E2"/>
    </vehicle>
    <vehicle id="X85" depart="85.00">
        <route edges="E1 D1 A2"/>
    </vehicle>
    <vehicle id="86" depart="86.00">
        <route edges="C1 D2 F2"/>
    </vehicle>
    <vehicle id="X86" depart="86.00">
        <route edges="F1 D1 C2"/>
    </vehicle>
    <vehicle id="87" depart="87.00">
        <route edges="B1 D2 E2"/>
    </vehicle>
    <vehicle id="X87" depart="87.00">
        <route edges="E1 D1 B2"/>
    </vehicle>
    <vehicle id="88" depart="88.00">
        <route edges="B1 D2 F2"/>
    </vehicle>
    <vehicle id="X88" depart="88.00">
        <route edges="F1 D1 B2"/>
    </vehicle>
    <vehicle id="89" depart="89.00">
        <route edges="B1 D2 E2"/>
    </vehicle>
    <vehicle id="X89" depart="89.00">
        <route edges="E1 D1 B2"/>
    </vehicle>
    <vehicle id="90" depart="90.00">
        <route edges="B1 D2 F2"/>
    </vehicle>
    <vehicle id="X90" depart="90.00">
        <route edges="F1 D1 B2"/>
    </vehicle>
    <vehicle id="91" depart="91.00">
        <route edges="C1 D2 G2"/>
    </vehicle>
    <vehicle id="X91" depart="91.00">
        <route edges="G1 D1 C2"/>
    </vehicle>
    <vehicle id="92" depart="92.00">
        <route edges="B1 D2 E2"/>
    </vehicle>
    <vehicle id="X92" depart="92.00">
        <route edges="E1 D1 B2"/>
    </vehicle>
    <vehicle id="93" depart="93.00">
        <route edges="B1 D2 F2"/>
    </vehicle>
    <vehicle id="X93" depart="93.00">
        <route edges="F1 D1 B2"/>
    </vehicle>
    <vehicle id="94" depart="94.00">
        <route edges="C1 D2 F2"/>
    </vehicle>
    <vehicle id="X94" depart="94.00">
        <route edges="F1 D1 C2"/>
    </vehicle>
    <vehicle id="95" depart="95.00">
        <route edges="C1 D2 E2"/>
    </vehicle>
    <vehicle id="X95" depart="95.00">
        <route edges="E1 D1 C2"/>
    </vehicle>
    <vehicle id="96" depart="96.00">
        <route edges="A1 D2 F2"/>
    </vehicle>
    <vehicle id="X96" depart="96.00">
        <route edges="F1 D1 A2"/>
    </vehicle>
    <vehicle id="97" depart="97.00">
        <route edges="B1 D2 E2"/>
    </vehicle>
    <vehicle id="X97" depart="97.00">
        <route edges="E1 D1 B2"/>
    </vehicle>
    <vehicle id="98" depart="98.00">
        <route edges="C1 D2 F2"/>
    </vehicle>
    <vehicle id="X98" depart="98.00">
        <route edges="F1 D1 C2"/>
    </vehicle>
    <vehicle id="99" depart="99.00">
        <route edges="B1 D2 F2"/>
    </vehicle>
    <vehicle id="X99" depart="99.00">
        <route edges="F1 D1 B2"/>
    </vehicle>
    <vehicle id="100" depart="100.00">
        <route edges="B1 D2 E2"/>
    </vehicle>
    <vehicle id="X100" depart="100.00">
        <route edges="E1 D1 B2"/>
    </vehicle>
    <vehicle id="101" depart="101.00">
        <route edges="B1 D2 E2"/>
    </vehicle>
    <vehicle id="X101" depart="101.00">
        <route edges="E1 D1 B2"/>
    </vehicle>
    <vehicle id="102" depart="102.00">
        <route edges="B1 D2 F2"/>
    </vehicle>
    <vehicle id="X102" depart="102.00">
        <route edges="F1 D1 B2"/>
    </vehicle>
    <vehicle id="103" depart="103.00">
        <route edges="C1 D2 F2"/>
    </vehicle>
    <vehicle id="X103" depart="103.00">
        <route edges="F1 D1 C2"/>
    </vehicle>
    <vehicle id="104" depart="104.00">
        <route edges="B1 D2 E2"/>
    </vehicle>
    <vehicle id="X104" depart="104.00">
        <route edges="E1 D1 B2"/>
    </vehicle>
    <vehicle id="105" depart="105.00">
        <route edges="B1 D2 E2"/>
    </vehicle>
    <vehicle id="X105" depart="105.00">
        <route edges="E1 D1 B2"/>
    </vehicle>
    <vehicle id="106" depart="106.00">
        <route edges="C1 D2 E2"/>
    </vehicle>
    <vehicle id="X106" depart="106.00">
        <route edges="E1 D1 C2"/>
    </vehicle>
    <vehicle id="107" depart="107.00">
        <route edges="B1 D2 F2"/>
    </vehicle>
    <vehicle id="X107" depart="107.00">
        <route edges="F1 D1 B2"/>
    </vehicle>
    <vehicle id="108" depart="108.00">
        <route edges="C1 D2 F2"/>
    </vehicle>
    <vehicle id="X108" depart="108.00">
        <route edges="F1 D1 C2"/>
    </vehicle>
    <vehicle id="109" depart="109.00">
        <route edges="C1 D2 F2"/>
    </vehicle>
    <vehicle id="X109" depart="109.00">
        <route edges="F1 D1 C2"/>
    </vehicle>
    <vehicle id="110" depart="110.00">
        <route edges="C1 D2 E2"/>
    </vehicle>
    <vehicle id="X110" depart="110.00">
        <route edges="E1 D1 C2"/>
    </vehicle>
    <vehicle id="111" depart="111.00">
        <route edges="B1 D2 F2"/>
    </vehicle>
    <vehicle id="X111" depart="111.00">
        <route edges="F1 D1 B2"/>
    </vehicle>
    <vehicle id="112" depart="112.00">
        <route edges="B1 D2 E2"/>
    </vehicle>
    <vehicle id="X112" depart="112.00">
        <route edges="E1 D1 B2"/>
    </vehicle>
    <vehicle id="113" depart="113.00">
        <route edges="A1 D2 F2"/>
    </vehicle>
    <vehicle id="X113" depart="113.00">
        <route edges="F1 D1 A2"/>
    </vehicle>
    <vehicle id="114" depart="114.00">
        <route edges="C1 D2 E2"/>
    </vehicle>
    <vehicle id="X114" depart="114.00">
        <route edges="E1 D1 C2"/>
    </vehicle>
    <vehicle id="115" depart="115.00">
        <route edges="B1 D2 G2"/>
    </vehicle>
    <vehicle id="X115" depart="115.00">
        <route edges="G1 D1 B2"/>
    </vehicle>
    <vehicle id="116" depart="116.00">
        <route edges="C1 D2 E2"/>
    </vehicle>
    <vehicle id="X116" depart="116.00">
        <route edges="E1 D1 C2"/>
    </vehicle>
    <vehicle id="117" depart="117.00">
        <route edges="B1 D2 E2"/>
    </vehicle>
    <vehicle id="X117" depart="117.00">
        <route edges="E1 D1 B2"/>
    </vehicle>
    <vehicle id="118" depart="118.00">
        <route edges="A1 D2 E2"/>
    </vehicle>
    <vehicle id="X118" depart="118.00">
        <route edges="E1 D1 A2"/>
    </vehicle>
    <vehicle id="119" depart="119.00">
        <route edges="B1 D2 F2"/>
    </vehicle>
    <vehicle id="X119" depart="119.00">
        <route edges="F1 D1 B2"/>
    </vehicle>
    <vehicle id="120" depart="120.00">
        <route edges="C1 D2 G2"/>
    </vehicle>
    <vehicle id="X120" depart="120.00">
        <route edges="G1 D1 C2"/>
    </vehicle>
    <vehicle id="121" depart="121.00">
        <route edges="B1 D2 F2"/>
    </vehicle>
    <vehicle id="X121" depart="121.00">
        <route edges="F1 D1 B2"/>
    </vehicle>
    <vehicle id="122" depart="122.00">
        <route edges="C1 D2 E2"/>
    </vehicle>
    <vehicle id="X122" depart="122.00">
        <route edges="E1 D1 C2"/>
    </vehicle>
    <vehicle id="123" depart="123.00">
        <route edges="C1 D2 F2"/>
    </vehicle>
    <vehicle id="X123" depart="123.00">
        <route edges="F1 D1 C2"/>
    </vehicle>
    <vehicle id="124" depart="124.00">
        <route edges="C1 D2 F2"/>
    </vehicle>
    <vehicle id="X124" depart="124.00">
        <route edges="F1 D1 C2"/>
    </vehicle>
    <vehicle id="125" depart="125.00">
        <route edges="A1 D2 E2"/>
    </vehicle>
    <vehicle id="X125" depart="125.00">
        <route edges="E1 D1 A2"/>
    </vehicle>
    <vehicle id="126" depart="126.00">
        <route edges="C1 D2 E2"/>
    </vehicle>
    <vehicle id="X126" depart="126.00">
        <route edges="E1 D1 C2"/>
    </vehicle>
    <vehicle id="127" depart="127.00">
        <route edges="A1 D2 E2"/>
    </vehicle>
    <vehicle id="X127" depart="127.00">
        <route edges="E1 D1 A2"/>
    </vehicle>
    <vehicle id="128" depart="128.00">
        <route edges="C1 D2 F2"/>
    </vehicle>
    <vehicle id="X128" depart="128.00">
        <route edges="F1 D1 C2"/>
    </vehicle>
    <vehicle id="129" depart="129.00">
        <route edges="A1 D2 F2"/>
    </vehicle>
    <vehicle id="X129" depart="129.00">
        <route edges="F1 D1 A2"/>
    </vehicle>
    <vehicle id="130" depart="130.00">
        <route edges="C1 D2 E2"/>
    </vehicle>
    <vehicle id="X130" depart="130.00">
        <route edges="E1 D1 C2"/>
    </vehicle>
    <vehicle id="131" depart="131.00">
        <route edges="B1 D2 E2"/>
    </vehicle>
    <vehicle id="X131" depart="131.00">
        <route edges="E1 D1 B2"/>
    </vehicle>
    <vehicle id="132" depart="132.00">
        <route edges="B1 D2 F2"/>
    </vehicle>
    <vehicle id="X132" depart="132.00">
        <route edges="F1 D1 B2"/>
    </vehicle>
    <vehicle id="133" depart="133.00">
        <route edges="C1 D2 F2"/>
    </vehicle>
    <vehicle id="X133" depart="133.00">
        <route edges="F1 D1 C2"/>
    </vehicle>
    <vehicle id="134" depart="134.00">
        <route edges="B1 D2 E2"/>
    </vehicle>
    <vehicle id="X134" depart="134.00">
        <route edges="E1 D1 B2"/>
    </vehicle>
    <vehicle id="135" depart="135.00">
        <route edges="C1 D2 F2"/>
    </vehicle>
    <vehicle id="X135" depart="135.00">
        <route edges="F1 D1 C2"/>
    </vehicle>
    <vehicle id="136" depart="136.00">
        <route edges="B1 D2 F2"/>
    </vehicle>
    <vehicle id="X136" depart="136.00">
        <route edges="F1 D1 B2"/>
    </vehicle>
    <vehicle id="137" depart="137.00">
        <route edges="C1 D2 E2"/>
    </vehicle>
    <vehicle id="X137" depart="137.00">
        <route edges="E1 D1 C2"/>
    </vehicle>
    <vehicle id="138" depart="138.00">
        <route edges="B1 D2 F2"/>
    </vehicle>
    <vehicle id="X138" depart="138.00">
        <route edges="F1 D1 B2"/>
    </vehicle>
    <vehicle id="139" depart="139.00">
        <route edges="C1 D2 E2"/>
    </vehicle>
    <vehicle id="X139" depart="139.00">
        <route edges="E1 D1 C2"/>
    </vehicle>
    <vehicle id="140" depart="140.00">
        <route edges="B1 D2 G2"/>
    </vehicle>
    <vehicle id="X140" depart="140.00">
        <route edges="G1 E2"/>
    </vehicle>
    <vehicle id="141" depart="141.00">
        <route edges="B1 D2 E2"/>
    </vehicle>
    <vehicle id="X141" depart="141.00">
        <route edges="E1 D1 B2"/>
    </vehicle>
    <vehicle id="142" depart="142.00">
        <route edges="C1 D2 G2"/>
    </vehicle>
    <vehicle id="X142" depart="142.00">
        <route edges="G1 D1 C2"/>
    </vehicle>
    <vehicle id="143" depart="143.00">
        <route edges="B1 D2 E2"/>
    </vehicle>
    <vehicle id="X143" depart="143.00">
        <route edges="E1 D1 B2"/>
    </vehicle>
    <vehicle id="144" depart="144.00">
        <route edges="B1 D2 G2"/>
    </vehicle>
    <vehicle id="X144" depart="144.00">
        <route edges="G1 D1 B2"/>
    </vehicle>
    <vehicle id="145" depart="145.00">
        <route edges="C1 D2 E2"/>
    </vehicle>
    <vehicle id="X145" depart="145.00">
        <route edges="E1 D1 C2"/>
    </vehicle>
    <vehicle id="146" depart="146.00">
        <route edges="B1 D2 F2"/>
    </vehicle>
    <vehicle id="X146" depart="146.00">
        <route edges="F1 D1 B2"/>
    </vehicle>
    <vehicle id="147" depart="147.00">
        <route edges="C1 D2 F2"/>
    </vehicle>
    <vehicle id="X147" depart="147.00">
        <route edges="F1 D1 C2"/>
    </vehicle>
    <vehicle id="148" depart="148.00">
        <route edges="B1 D2 F2"/>
    </vehicle>
    <vehicle id="X148" depart="148.00">
        <route edges="F1 D1 B2"/>
    </vehicle>
    <vehicle id="149" depart="149.00">
        <route edges="C1 D2 F2"/>
    </vehicle>
    <vehicle id="X149" depart="149.00">
        <route edges="F1 D1 C2"/>
    </vehicle>
    <vehicle id="150" depart="150.00">
        <route edges="A1 D2 F2"/>
    </vehicle>
    <vehicle id="X150" depart="150.00">
        <route edges="F1 D1 A2"/>
    </vehicle>
    <vehicle id="151" depart="151.00">
        <route edges="B1 D2 F2"/>
    </vehicle>
    <vehicle id="X151" depart="151.00">
        <route edges="F1 D1 B2"/>
    </vehicle>
    <vehicle id="152" depart="152.00">
        <route edges="B1 D2 E2"/>
    </vehicle>
    <vehicle id="X152" depart="152.00">
        <route edges="E1 D1 B2"/>
    </vehicle>
    <vehicle id="153" depart="153.00">
        <route edges="C1 D2 F2"/>
    </vehicle>
    <vehicle id="X153" depart="153.00">
        <route edges="F1 D1 C2"/>
    </vehicle>
    <vehicle id="154" depart="154.00">
        <route edges="B1 D2 E2"/>
    </vehicle>
    <vehicle id="X154" depart="154.00">
        <route edges="E1 D1 B2"/>
    </vehicle>
    <vehicle id="155" depart="155.00">
        <route edges="C1 D2 F2"/>
    </vehicle>
    <vehicle id="X155" depart="155.00">
        <route edges="F1 D1 C2"/>
    </vehicle>
    <vehicle id="156" depart="156.00">
        <route edges="C1 D2 E2"/>
    </vehicle>
    <vehicle id="X156" depart="156.00">
        <route edges="E1 D1 C2"/>
    </vehicle>
    <vehicle id="157" depart="157.00">
        <route edges="B1 D2 F2"/>
    </vehicle>
    <vehicle id="X157" depart="157.00">
        <route edges="F1 D1 B2"/>
    </vehicle>
    <vehicle id="158" depart="158.00">
        <route edges="A1 D2 E2"/>
    </vehicle>
    <vehicle id="X158" depart="158.00">
        <route edges="E1 D1 A2"/>
    </vehicle>
    <vehicle id="159" depart="159.00">
        <route edges="B1 D2 F2"/>
    </vehicle>
    <vehicle id="X159" depart="159.00">
        <route edges="F1 D1 B2"/>
    </vehicle>
    <vehicle id="160" depart="160.00">
        <route edges="C1 D2 E2"/>
    </vehicle>
    <vehicle id="X160" depart="160.00">
        <route edges="E1 D1 C2"/>
    </vehicle>
    <vehicle id="161" depart="161.00">
        <route edges="C1 D2 F2"/>
    </vehicle>
    <vehicle id="X161" depart="161.00">
        <route edges="F1 D1 C2"/>
    </vehicle>
    <vehicle id="162" depart="162.00">